LAMMPS (23 Jun 2022 - Update 3)
# LJ fluid simulation - NPT ensemble
units lj
atom_style atomic
dimension 3
boundary p p p

# Create FCC lattice (864 atoms)
lattice fcc 0.8442
Lattice spacing in x,y,z = 1.6795962 1.6795962 1.6795962
region box block 0 6 0 6 0 6
create_box 1 box
Created orthogonal box = (0 0 0) to (10.077577 10.077577 10.077577)
create_atoms 1 box
Created 864 atoms
mass 1 1.0

# LJ potential
pair_style lj/cut 2.5
pair_coeff 1 1 1.0 1.0

# Neighbor list
neighbor 0.3 bin
neigh_modify every 1 delay 0 check yes

# Increase ghost atom communication for RDF
comm_modify cutoff 6.0

# Initial velocities (T* = 2.0)
velocity all create 2.0 482901 dist gaussian

# Thermodynamic output
thermo_style custom step temp pe ke etotal press vol density
thermo 100

# Trajectory output
dump 1 all custom 50 trajectory.lammpstrj id type x y z
dump_modify 1 sort id

# RDF calculation
compute rdf all rdf 100 1 1 cutoff 5.0
fix 3 all ave/time 100 10 1000 c_rdf[*] file rdf.dat mode vector

# MSD calculation
compute msd all msd
fix 4 all ave/time 1 1 1 c_msd[4] file msd.dat

# NPT equilibration (cool from T* = 2.0 to T* = 1.0)
fix 1 all npt temp 2.0 1.0 0.1 iso 1.0 1.0 1.0
timestep 0.005
run 5000
Generated 0 of 0 mixed pair_coeff terms from geometric mixing rule
  update every 1 steps, delay 0 steps, check yes
Step          Temp          PotEng         KinEng         TotEng         Press          Volume        Density
0   2             -6.7733681      2.9965278     -3.7768403     -4.5488714      1023.4542      0.8442
Averages over the last 26 of 51 rows, steps 2500 to 5000:
Temp PotEng KinEng TotEng Press Volume Density
1.24651 -4.1092 1.86761 -2.24159 0.960309 1327.43 0.655619
Loop time of 3.18403 on 1 procs for 5000 steps with 864 atoms

# NPT production (T* = 1.0, P* = 1.0)
unfix 1
fix 2 all npt temp 1.0 1.0 0.1 iso 1.0 1.0 1.0
run 10000
Generated 0 of 0 mixed pair_coeff terms from geometric mixing rule
Step          Temp          PotEng         KinEng         TotEng         Press          Volume        Density
5000   1.0023708     -4.8650617      1.501816      -3.3632457      0.83829745     1148.5091      0.75227961
Averages over the last 51 of 101 rows, steps 10000 to 15000:
Temp PotEng KinEng TotEng Press Volume Density
1.00182 -4.83375 1.50099 -3.33276 0.948586 1152.45 0.74981
Loop time of 7.28932 on 1 procs for 10000 steps with 864 atoms

write_data lj_final.data
System init for write_data ...
Generated 0 of 0 mixed pair_coeff terms from geometric mixing rule
